New Line.l(r:p30udm6389-p30ulv7055) Units=km Length=0.010081 bus1=p30udm6389.1.2 bus2=p30ulv7055.1.2 switch=n enabled=y phases=2 Linecode=1P_UG_AL_4/0_Sweetbriar_2

New Line.l(r:p30udm6389-p30udt1554lv) Units=km Length=0.0551112 bus1=p30udt1554lv.1.2 bus2=p30udm6389.1.2 switch=n enabled=y phases=2 Linecode=1P_UG_AL_4/0_Sweetbriar_2

New Line.l(r:p30udm6390-p30ulv30721) Units=km Length=0.0157862 bus1=p30udm6390.1.2 bus2=p30ulv30721.1.2 switch=n enabled=y phases=2 Linecode=1P_UG_AL_1/0_Brenau_2

New Line.l(r:p30udm6390-p30udt1554lv) Units=km Length=0.038402200000000004 bus1=p30udt1554lv.1.2 bus2=p30udm6390.1.2 switch=n enabled=y phases=2 Linecode=1P_UG_AL_1/0_Brenau_2

New Line.l(r:p30udt1556lv-p30ulv7057) Units=km Length=0.0177897 bus1=p30udt1556lv.1.2 bus2=p30ulv7057.1.2 switch=n enabled=y phases=2 Linecode=1P_OH_AL_2/0_Rucina_2

New Line.l(r:p30udt1556lv-p30ulv40392) Units=km Length=0.00327771 bus1=p30udt1556lv.1.2 bus2=p30ulv40392.1.2 switch=n enabled=y phases=2 Linecode=1P_OH_AL_4_Periwinkle_2

New Line.l(r:p30udm6393-p30ulv40391) Units=km Length=0.00717948 bus1=p30udm6393.1.2 bus2=p30ulv40391.1.2 switch=n enabled=y phases=2 Linecode=1P_OH_AL_2/0_Rucina_2

New Line.l(r:p30udm6393-p30udt1556lv) Units=km Length=0.0169511 bus1=p30udt1556lv.1.2 bus2=p30udm6393.1.2 switch=n enabled=y phases=2 Linecode=1P_OH_AL_2/0_Rucina_2

New Line.l(r:p30udt1563lv-p30ulv7065) Units=km Length=0.023917 bus1=p30udt1563lv.1.2 bus2=p30ulv7065.1.2 switch=n enabled=y phases=2 Linecode=1P_OH_AL_2/0_Rucina_2

New Line.l(r:p30udm6418-p30ulv7130) Units=km Length=0.00535179 bus1=p30udm6418.1.2 bus2=p30ulv7130.1.2 switch=n enabled=y phases=2 Linecode=1P_OH_AL_2/0_Rucina_2

New Line.l(r:p30udm6419-p30ulv7131) Units=km Length=0.0051753500000000004 bus1=p30udm6419.1.2 bus2=p30ulv7131.1.2 switch=n enabled=y phases=2 Linecode=1P_OH_AL_2/0_Rucina_2

New Line.l(r:p30udm6420-p30ulv7133) Units=km Length=0.005637460000000001 bus1=p30udm6420.1.2 bus2=p30ulv7133.1.2 switch=n enabled=y phases=2 Linecode=1P_OH_AL_2/0_Rucina_2

New Line.l(r:p30udm6419-p30udm6420) Units=km Length=0.0158435 bus1=p30udm6419.1.2 bus2=p30udm6420.1.2 switch=n enabled=y phases=2 Linecode=1P_OH_AL_2/0_Rucina_2

New Line.l(r:p30udm6418-p30udm6419) Units=km Length=0.0151163 bus1=p30udm6418.1.2 bus2=p30udm6419.1.2 switch=n enabled=y phases=2 Linecode=1P_OH_AL_2/0_Rucina_2

New Line.l(r:p30udm6418-p30udt1563lv) Units=km Length=0.0456495 bus1=p30udt1563lv.1.2 bus2=p30udm6418.1.2 switch=n enabled=y phases=2 Linecode=1P_OH_AL_4/0_Zuzara_2_1

New Line.l(r:p30udm6423-p30ulv40342) Units=km Length=0.00694283 bus1=p30udm6423.1.2 bus2=p30ulv40342.1.2 switch=n enabled=y phases=2 Linecode=1P_OH_AL_2/0_Rucina_2

New Line.l(r:p30udm6422-p30ulv40341) Units=km Length=0.0186363 bus1=p30udm6422.1.2 bus2=p30ulv40341.1.2 switch=n enabled=y phases=2 Linecode=1P_OH_AL_2/0_Rucina_2

New Line.l(r:p30udm6422-p30udm6423) Units=km Length=0.0101071 bus1=p30udm6423.1.2 bus2=p30udm6422.1.2 switch=n enabled=y phases=2 Linecode=1P_OH_AL_2/0_Rucina_2

New Line.l(r:p30udm6423-p30udt1564lv) Units=km Length=0.0101205 bus1=p30udt1564lv.1.2 bus2=p30udm6423.1.2 switch=n enabled=y phases=2 Linecode=1P_OH_AL_2/0_Rucina_2

New Line.l(r:p30udm6424-p30ulv40367) Units=km Length=0.00798244 bus1=p30udm6424.1.2 bus2=p30ulv40367.1.2 switch=n enabled=y phases=2 Linecode=1P_OH_AL_2/0_Rucina_2

New Line.l(r:p30udm6421-p30ulv7066) Units=km Length=0.0118725 bus1=p30udm6421.1.2 bus2=p30ulv7066.1.2 switch=n enabled=y phases=2 Linecode=1P_OH_AL_2/0_Rucina_2

New Line.l(r:p30udm6421-p30udm6424) Units=km Length=0.018361900000000004 bus1=p30udm6424.1.2 bus2=p30udm6421.1.2 switch=n enabled=y phases=2 Linecode=1P_OH_AL_2/0_Rucina_2

New Line.l(r:p30udm6424-p30udt1564lv) Units=km Length=0.0102592 bus1=p30udt1564lv.1.2 bus2=p30udm6424.1.2 switch=n enabled=y phases=2 Linecode=1P_OH_AL_2/0_Rucina_2

New Line.l(r:p30udt1578lv-p30ulv7106) Units=km Length=0.00431521 bus1=p30udt1578lv.1.2 bus2=p30ulv7106.1.2 switch=n enabled=y phases=2 Linecode=1P_OH_AL_2/0_Rucina_2

New Line.l(r:p30udt1578lv-p30ulv7135) Units=km Length=0.00355647 bus1=p30udt1578lv.1.2 bus2=p30ulv7135.1.2 switch=n enabled=y phases=2 Linecode=1P_OH_AL_4_Periwinkle_2

New Line.l(r:p30udt1578lv-p30ulv7137) Units=km Length=0.00593507 bus1=p30udt1578lv.1.2 bus2=p30ulv7137.1.2 switch=n enabled=y phases=2 Linecode=1P_OH_AL_2/0_Rucina_2

New Line.l(r:p30udm6518-p30ulv7105) Units=km Length=0.00580504 bus1=p30udm6518.1.2 bus2=p30ulv7105.1.2 switch=n enabled=y phases=2 Linecode=1P_OH_AL_2/0_Rucina_2

New Line.l(r:p30udm6518-p30udt1578lv) Units=km Length=0.019047600000000005 bus1=p30udt1578lv.1.2 bus2=p30udm6518.1.2 switch=n enabled=y phases=2 Linecode=1P_OH_AL_2/0_Rucina_2

New Line.l(r:p30udm6520-p30ulv7108) Units=km Length=0.006129230000000001 bus1=p30udm6520.1.2 bus2=p30ulv7108.1.2 switch=n enabled=y phases=2 Linecode=1P_OH_AL_2/0_Rucina_2

New Line.l(r:p30udm6520-p30ulv7109) Units=km Length=0.0052267 bus1=p30udm6520.1.2 bus2=p30ulv7109.1.2 switch=n enabled=y phases=2 Linecode=1P_OH_AL_2/0_Rucina_2

New Line.l(r:p30udm6520-p30ulv7138) Units=km Length=0.00343792 bus1=p30udm6520.1.2 bus2=p30ulv7138.1.2 switch=n enabled=y phases=2 Linecode=1P_OH_AL_4_Periwinkle_2

New Line.l(r:p30udm6520-p30udt1578lv) Units=km Length=0.019047600000000005 bus1=p30udt1578lv.1.2 bus2=p30udm6520.1.2 switch=n enabled=y phases=2 Linecode=1P_OH_AL_2/0_Rucina_2

New Line.l(r:p30udt1579lv-p30ulv7110) Units=km Length=0.0038475200000000005 bus1=p30udt1579lv.1.2 bus2=p30ulv7110.1.2 switch=n enabled=y phases=2 Linecode=1P_OH_AL_4_Periwinkle_2

New Line.l(r:p30udt1579lv-p30ulv7116) Units=km Length=0.0043961 bus1=p30udt1579lv.1.2 bus2=p30ulv7116.1.2 switch=n enabled=y phases=2 Linecode=1P_OH_AL_2/0_Rucina_2

New Line.l(r:p30udm6527-p30ulv7120) Units=km Length=0.00440478 bus1=p30udm6527.1.2 bus2=p30ulv7120.1.2 switch=n enabled=y phases=2 Linecode=1P_OH_AL_2/0_Rucina_2

New Line.l(r:p30udm6527-p30udt1579lv) Units=km Length=0.015616700000000002 bus1=p30udt1579lv.1.2 bus2=p30udm6527.1.2 switch=n enabled=y phases=2 Linecode=1P_OH_AL_2/0_Rucina_2

New Line.l(r:p30udm6528-p30ulv7125) Units=km Length=0.004484150000000001 bus1=p30udm6528.1.2 bus2=p30ulv7125.1.2 switch=n enabled=y phases=2 Linecode=1P_OH_AL_2/0_Rucina_2

New Line.l(r:p30udm6528-p30udt1579lv) Units=km Length=0.015616700000000002 bus1=p30udt1579lv.1.2 bus2=p30udm6528.1.2 switch=n enabled=y phases=2 Linecode=1P_OH_AL_2/0_Rucina_2

New Line.l(r:p30udt1580lv-p30ulv7115) Units=km Length=0.00403626 bus1=p30udt1580lv.1.2 bus2=p30ulv7115.1.2 switch=n enabled=y phases=2 Linecode=1P_OH_AL_2/0_Rucina_2

New Line.l(r:p30udt1580lv-p30ulv7121) Units=km Length=0.0045607 bus1=p30udt1580lv.1.2 bus2=p30ulv7121.1.2 switch=n enabled=y phases=2 Linecode=1P_OH_AL_2/0_Rucina_2

New Line.l(r:p30udm6529-p30ulv7114) Units=km Length=0.003809 bus1=p30udm6529.1.2 bus2=p30ulv7114.1.2 switch=n enabled=y phases=2 Linecode=1P_OH_AL_4_Periwinkle_2

New Line.l(r:p30udm6529-p30udt1580lv) Units=km Length=0.015616700000000002 bus1=p30udt1580lv.1.2 bus2=p30udm6529.1.2 switch=n enabled=y phases=2 Linecode=1P_OH_AL_2/0_Rucina_2

New Line.l(r:p30udt1581lv-p30ulv7128) Units=km Length=0.00415626 bus1=p30udt1581lv.1.2 bus2=p30ulv7128.1.2 switch=n enabled=y phases=2 Linecode=1P_OH_AL_2/0_Rucina_2

New Line.l(r:p30udm6534-p30ulv7129) Units=km Length=0.0036465100000000004 bus1=p30udm6534.1.2 bus2=p30ulv7129.1.2 switch=n enabled=y phases=2 Linecode=1P_OH_AL_4_Periwinkle_2

New Line.l(r:p30udm6532-p30ulv7122) Units=km Length=0.00676932 bus1=p30udm6532.1.2 bus2=p30ulv7122.1.2 switch=n enabled=y phases=2 Linecode=1P_OH_AL_2/0_Rucina_2

New Line.l(r:p30udm6532-p30udm6534) Units=km Length=0.054288 bus1=p30udm6534.1.2 bus2=p30udm6532.1.2 switch=n enabled=y phases=2 Linecode=1P_OH_AL_4/0_Zuzara_2

New Line.l(r:p30udm6534-p30udt1581lv) Units=km Length=0.0182998 bus1=p30udt1581lv.1.2 bus2=p30udm6534.1.2 switch=n enabled=y phases=2 Linecode=1P_OH_AL_2/0_Rucina_2

New Line.l(r:p30udm12668-p30ulv10318) Units=km Length=0.00846823 bus1=p30udm12668.1.2 bus2=p30ulv10318.1.2 switch=n enabled=y phases=2 Linecode=1P_OH_AL_2/0_Rucina_2

New Line.l(r:p30udm12668-p30udt2794lv) Units=km Length=0.0374995 bus1=p30udt2794lv.1.2 bus2=p30udm12668.1.2 switch=n enabled=y phases=2 Linecode=1P_OH_AL_4/0_Zuzara_2

New Line.l(r:p30udm12669-p30ulv43309) Units=km Length=0.00668746 bus1=p30udm12669.1.2 bus2=p30ulv43309.1.2 switch=n enabled=y phases=2 Linecode=1P_UG_AL_1/0_Brenau_2

New Line.l(r:p30udm12669-p30udt2794lv) Units=km Length=0.0744185 bus1=p30udt2794lv.1.2 bus2=p30udm12669.1.2 switch=n enabled=y phases=2 Linecode=1P_OH_AL_4/0_Zuzara_2

New Line.l(r:p30udt2795lv-p30ulv10320) Units=km Length=0.00833591 bus1=p30udt2795lv.1.2 bus2=p30ulv10320.1.2 switch=n enabled=y phases=2 Linecode=1P_UG_AL_4/0_Sweetbriar_2

New Line.l(r:p30udt2796lv-p30ulv10321) Units=km Length=0.0101702 bus1=p30udt2796lv.1.2 bus2=p30ulv10321.1.2 switch=n enabled=y phases=2 Linecode=1P_UG_AL_1/0_Brenau_2

New Line.l(r:p30udm12672-p30ulv10322) Units=km Length=0.0102883 bus1=p30udm12672.1.2 bus2=p30ulv10322.1.2 switch=n enabled=y phases=2 Linecode=1P_UG_AL_1/0_Brenau_2

New Line.l(r:p30udm12672-p30udt2796lv) Units=km Length=0.0213951 bus1=p30udt2796lv.1.2 bus2=p30udm12672.1.2 switch=n enabled=y phases=2 Linecode=1P_UG_AL_1/0_Brenau_2

New Line.l(r:p30udm12673-p30ulv43286) Units=km Length=0.010687900000000002 bus1=p30udm12673.1.2 bus2=p30ulv43286.1.2 switch=n enabled=y phases=2 Linecode=1P_UG_AL_4/0_Sweetbriar_2

New Line.l(r:p30udm12673-p30udt2796lv) Units=km Length=0.00928665 bus1=p30udt2796lv.1.2 bus2=p30udm12673.1.2 switch=n enabled=y phases=2 Linecode=1P_UG_AL_4/0_Sweetbriar_2

New Line.l(r:p30udt2801lv-p30ulv10327) Units=km Length=0.0146959 bus1=p30udt2801lv.1.2 bus2=p30ulv10327.1.2 switch=n enabled=y phases=2 Linecode=1P_OH_AL_2/0_Rucina_2

New Line.l(r:p30udt3440lv-p30ulv30651) Units=km Length=0.016407800000000004 bus1=p30udt3440lv.1.2 bus2=p30ulv30651.1.2 switch=n enabled=y phases=2 Linecode=1P_OH_AL_2/0_Rucina_2

New Line.l(r:p30udt3440lv-p30ulv30666) Units=km Length=0.017397 bus1=p30udt3440lv.1.2 bus2=p30ulv30666.1.2 switch=n enabled=y phases=2 Linecode=1P_OH_AL_2/0_Rucina_2

New Line.l(r:p30udt3440lv-p30ulv30686) Units=km Length=0.0193769 bus1=p30udt3440lv.1.2 bus2=p30ulv30686.1.2 switch=n enabled=y phases=2 Linecode=1P_OH_AL_2/0_Rucina_2

New Line.l(r:p30udm16140-p30ulv12272) Units=km Length=0.0467105 bus1=p30udm16140.1.2 bus2=p30ulv12272.1.2 switch=n enabled=y phases=2 Linecode=1P_OH_AL_4/0_Zuzara_2

New Line.l(r:p30udm16140-p30ulv30633) Units=km Length=0.01614 bus1=p30udm16140.1.2 bus2=p30ulv30633.1.2 switch=n enabled=y phases=2 Linecode=1P_OH_AL_2/0_Rucina_2

New Line.l(r:p30udm16140-p30ulv30661) Units=km Length=0.0179929 bus1=p30udm16140.1.2 bus2=p30ulv30661.1.2 switch=n enabled=y phases=2 Linecode=1P_OH_AL_2/0_Rucina_2

New Line.l(r:p30udm16140-p30udt3440lv) Units=km Length=0.0187812 bus1=p30udt3440lv.1.2 bus2=p30udm16140.1.2 switch=n enabled=y phases=2 Linecode=1P_OH_AL_2/0_Rucina_2

New Line.l(r:p30udm16144-p30ulv30663) Units=km Length=0.0458712 bus1=p30udm16144.1.2 bus2=p30ulv30663.1.2 switch=n enabled=y phases=2 Linecode=1P_OH_AL_4/0_Zuzara_2

New Line.l(r:p30udm16144-p30ulv30680) Units=km Length=0.0173688 bus1=p30udm16144.1.2 bus2=p30ulv30680.1.2 switch=n enabled=y phases=2 Linecode=1P_OH_AL_2/0_Rucina_2

New Line.l(r:p30udm16144-p30ulv30703) Units=km Length=0.019008 bus1=p30udm16144.1.2 bus2=p30ulv30703.1.2 switch=n enabled=y phases=2 Linecode=1P_OH_AL_2/0_Rucina_2

New Line.l(r:p30udm16144-p30ulv30718) Units=km Length=0.0216579 bus1=p30udm16144.1.2 bus2=p30ulv30718.1.2 switch=n enabled=y phases=2 Linecode=1P_OH_AL_2/0_Rucina_2

New Line.l(r:p30udm16148-p30ulv30691) Units=km Length=0.0130009 bus1=p30udm16148.1.2 bus2=p30ulv30691.1.2 switch=n enabled=y phases=2 Linecode=1P_OH_AL_2/0_Rucina_2

New Line.l(r:p30udm16144-p30udm16148) Units=km Length=0.0187864 bus1=p30udm16144.1.2 bus2=p30udm16148.1.2 switch=n enabled=y phases=2 Linecode=1P_OH_AL_2/0_Rucina_2

New Line.l(r:p30udm16144-p30udt3440lv) Units=km Length=0.0187727 bus1=p30udt3440lv.1.2 bus2=p30udm16144.1.2 switch=n enabled=y phases=2 Linecode=1P_OH_AL_2/0_Rucina_2

New Line.l(r:p30udt3614lv-p30ulv12649) Units=km Length=0.0148647 bus1=p30udt3614lv.1.2 bus2=p30ulv12649.1.2 switch=n enabled=y phases=2 Linecode=1P_OH_AL_2/0_Rucina_2

New Line.l(r:p30udt3614lv-p30ulv31677) Units=km Length=0.020021 bus1=p30udt3614lv.1.2 bus2=p30ulv31677.1.2 switch=n enabled=y phases=2 Linecode=1P_OH_AL_2/0_Rucina_2

New Line.l(r:p30udt3614lv-p30ulv31684) Units=km Length=0.0174977 bus1=p30udt3614lv.1.2 bus2=p30ulv31684.1.2 switch=n enabled=y phases=2 Linecode=1P_OH_AL_2/0_Rucina_2

New Line.l(r:p30udm17163-p30ulv12647) Units=km Length=0.0159215 bus1=p30udm17163.1.2 bus2=p30ulv12647.1.2 switch=n enabled=y phases=2 Linecode=1P_OH_AL_2/0_Rucina_2

New Line.l(r:p30udm17163-p30ulv12669) Units=km Length=0.017561500000000004 bus1=p30udm17163.1.2 bus2=p30ulv12669.1.2 switch=n enabled=y phases=2 Linecode=1P_OH_AL_2/0_Rucina_2

New Line.l(r:p30udm17163-p30ulv31654) Units=km Length=0.043948 bus1=p30udm17163.1.2 bus2=p30ulv31654.1.2 switch=n enabled=y phases=2 Linecode=1P_OH_AL_4/0_Zuzara_2

New Line.l(r:p30udm17163-p30ulv31662) Units=km Length=0.0139291 bus1=p30udm17163.1.2 bus2=p30ulv31662.1.2 switch=n enabled=y phases=2 Linecode=1P_OH_AL_2/0_Rucina_2

New Line.l(r:p30udm17163-p30udt3614lv) Units=km Length=0.0187727 bus1=p30udt3614lv.1.2 bus2=p30udm17163.1.2 switch=n enabled=y phases=2 Linecode=1P_OH_AL_2/0_Rucina_2

New Line.l(r:p30udm17166-p30ulv31627) Units=km Length=0.0343037 bus1=p30udm17166.1.2 bus2=p30ulv31627.1.2 switch=n enabled=y phases=2 Linecode=1P_OH_AL_4/0_Zuzara_2

New Line.l(r:p30udm17166-p30ulv31636) Units=km Length=0.014263600000000001 bus1=p30udm17166.1.2 bus2=p30ulv31636.1.2 switch=n enabled=y phases=2 Linecode=1P_OH_AL_2/0_Rucina_2

New Line.l(r:p30udm17166-p30ulv31659) Units=km Length=0.0194674 bus1=p30udm17166.1.2 bus2=p30ulv31659.1.2 switch=n enabled=y phases=2 Linecode=1P_OH_AL_2/0_Rucina_2

New Line.l(r:p30udm17166-p30udt3614lv) Units=km Length=0.0187812 bus1=p30udt3614lv.1.2 bus2=p30udm17166.1.2 switch=n enabled=y phases=2 Linecode=1P_OH_AL_2/0_Rucina_2

New Line.l(r:p30udt3615lv-p30ulv30632) Units=km Length=0.0171979 bus1=p30udt3615lv.1.2 bus2=p30ulv30632.1.2 switch=n enabled=y phases=2 Linecode=1P_OH_AL_2/0_Rucina_2

New Line.l(r:p30udt3615lv-p30ulv30640) Units=km Length=0.0327516 bus1=p30udt3615lv.1.2 bus2=p30ulv30640.1.2 switch=n enabled=y phases=2 Linecode=1P_OH_AL_4/0_Zuzara_2

New Line.l(r:p30udt3615lv-p30ulv31701) Units=km Length=0.0470435 bus1=p30udt3615lv.1.2 bus2=p30ulv31701.1.2 switch=n enabled=y phases=2 Linecode=1P_OH_AL_4/0_Zuzara_2

New Line.l(r:p30udt3615lv-p30ulv31703) Units=km Length=0.0156409 bus1=p30udt3615lv.1.2 bus2=p30ulv31703.1.2 switch=n enabled=y phases=2 Linecode=1P_OH_AL_2/0_Rucina_2

New Line.l(r:p30udm17173-p30ulv12648) Units=km Length=0.0162109 bus1=p30udm17173.1.2 bus2=p30ulv12648.1.2 switch=n enabled=y phases=2 Linecode=1P_OH_AL_2/0_Rucina_2

New Line.l(r:p30udm17173-p30ulv12670) Units=km Length=0.0180959 bus1=p30udm17173.1.2 bus2=p30ulv12670.1.2 switch=n enabled=y phases=2 Linecode=1P_OH_AL_2/0_Rucina_2

New Line.l(r:p30udm17173-p30udt3615lv) Units=km Length=0.0187727 bus1=p30udt3615lv.1.2 bus2=p30udm17173.1.2 switch=n enabled=y phases=2 Linecode=1P_OH_AL_2/0_Rucina_2

New Line.l(r:p30udm17177-p30ulv30648) Units=km Length=0.0181039 bus1=p30udm17177.1.2 bus2=p30ulv30648.1.2 switch=n enabled=y phases=2 Linecode=1P_OH_AL_2/0_Rucina_2

New Line.l(r:p30udm17177-p30ulv30670) Units=km Length=0.0432915 bus1=p30udm17177.1.2 bus2=p30ulv30670.1.2 switch=n enabled=y phases=2 Linecode=1P_OH_AL_4/0_Zuzara_2

New Line.l(r:p30udm17177-p30ulv31715) Units=km Length=0.013501600000000002 bus1=p30udm17177.1.2 bus2=p30ulv31715.1.2 switch=n enabled=y phases=2 Linecode=1P_OH_AL_2/0_Rucina_2

New Line.l(r:p30udm17177-p30udt3615lv) Units=km Length=0.0187812 bus1=p30udt3615lv.1.2 bus2=p30udm17177.1.2 switch=n enabled=y phases=2 Linecode=1P_OH_AL_2/0_Rucina_2

New Line.l(r:p30udt4321lv-p30ulv29750) Units=km Length=0.0178289 bus1=p30udt4321lv.1.2 bus2=p30ulv29750.1.2 switch=n enabled=y phases=2 Linecode=1P_UG_AL_1/0_Brenau_2

New Line.l(r:p30udt4321lv-p30ulv29786) Units=km Length=0.0172739 bus1=p30udt4321lv.1.2 bus2=p30ulv29786.1.2 switch=n enabled=y phases=2 Linecode=1P_UG_AL_1/0_Brenau_2

New Line.l(r:p30udm20326-p30ulv14162) Units=km Length=0.0469702 bus1=p30udm20326.1.2 bus2=p30ulv14162.1.2 switch=n enabled=y phases=2 Linecode=1P_UG_AL_1/0_Brenau_2

New Line.l(r:p30udm20326-p30ulv29739) Units=km Length=0.0196485 bus1=p30udm20326.1.2 bus2=p30ulv29739.1.2 switch=n enabled=y phases=2 Linecode=1P_UG_AL_1/0_Brenau_2

New Line.l(r:p30udm20327-p30ulv29732) Units=km Length=0.016031 bus1=p30udm20327.1.2 bus2=p30ulv29732.1.2 switch=n enabled=y phases=2 Linecode=1P_UG_AL_1/0_Brenau_2

New Line.l(r:p30udm20326-p30udm20327) Units=km Length=0.0199608 bus1=p30udm20326.1.2 bus2=p30udm20327.1.2 switch=n enabled=y phases=2 Linecode=1P_UG_AL_1/0_Brenau_2

New Line.l(r:p30udm20326-p30udt4321lv) Units=km Length=0.00998301 bus1=p30udt4321lv.1.2 bus2=p30udm20326.1.2 switch=n enabled=y phases=2 Linecode=1P_UG_AL_2/0_Converse_2

New Line.l(r:p30udm20330-p30ulv29762) Units=km Length=0.0180065 bus1=p30udm20330.1.2 bus2=p30ulv29762.1.2 switch=n enabled=y phases=2 Linecode=1P_UG_AL_1/0_Brenau_2

New Line.l(r:p30udm20332-p30ulv29795) Units=km Length=0.019469200000000002 bus1=p30udm20332.1.2 bus2=p30ulv29795.1.2 switch=n enabled=y phases=2 Linecode=1P_UG_AL_1/0_Brenau_2

New Line.l(r:p30udm20330-p30udm20332) Units=km Length=0.00998301 bus1=p30udm20330.1.2 bus2=p30udm20332.1.2 switch=n enabled=y phases=2 Linecode=1P_UG_AL_1/0_Brenau_2

New Line.l(r:p30udm20330-p30udt4321lv) Units=km Length=0.00998301 bus1=p30udt4321lv.1.2 bus2=p30udm20330.1.2 switch=n enabled=y phases=2 Linecode=1P_UG_AL_4/0_Sweetbriar_2

New Line.l(r:p30udt4322lv-p30ulv14164) Units=km Length=0.016370900000000004 bus1=p30udt4322lv.1.2 bus2=p30ulv14164.1.2 switch=n enabled=y phases=2 Linecode=1P_UG_AL_4/0_Sweetbriar_2

New Line.l(r:p30udt4322lv-p30ulv29798) Units=km Length=0.0319764 bus1=p30udt4322lv.1.2 bus2=p30ulv29798.1.2 switch=n enabled=y phases=2 Linecode=1P_UG_AL_1/0_Brenau_2

New Line.l(r:p30udm20334-p30ulv14165) Units=km Length=0.0167804 bus1=p30udm20334.1.2 bus2=p30ulv14165.1.2 switch=n enabled=y phases=2 Linecode=1P_UG_AL_1/0_Brenau_2

New Line.l(r:p30udm20334-p30udt4322lv) Units=km Length=0.00997784 bus1=p30udt4322lv.1.2 bus2=p30udm20334.1.2 switch=n enabled=y phases=2 Linecode=1P_UG_AL_1/0_Brenau_2

New Line.l(r:p30udt4323lv-p30ulv14193) Units=km Length=0.0118424 bus1=p30udt4323lv.1.2 bus2=p30ulv14193.1.2 switch=n enabled=y phases=2 Linecode=1P_OH_AL_2/0_Rucina_2

New Line.l(r:p30udm20336-p30ulv14166) Units=km Length=0.0100103 bus1=p30udm20336.1.2 bus2=p30ulv14166.1.2 switch=n enabled=y phases=2 Linecode=1P_OH_AL_2/0_Rucina_2

New Line.l(r:p30udm20336-p30udt4323lv) Units=km Length=0.0192419 bus1=p30udt4323lv.1.2 bus2=p30udm20336.1.2 switch=n enabled=y phases=2 Linecode=1P_OH_AL_2/0_Rucina_2

New Line.l(r:p30udm20339-p30ulv29818) Units=km Length=0.0116784 bus1=p30udm20339.1.2 bus2=p30ulv29818.1.2 switch=n enabled=y phases=2 Linecode=1P_OH_AL_2/0_Rucina_2

New Line.l(r:p30udm20338-p30ulv29807) Units=km Length=0.0158292 bus1=p30udm20338.1.2 bus2=p30ulv29807.1.2 switch=n enabled=y phases=2 Linecode=1P_OH_AL_2/0_Rucina_2

New Line.l(r:p30udm20338-p30udm20339) Units=km Length=0.0184027 bus1=p30udm20339.1.2 bus2=p30udm20338.1.2 switch=n enabled=y phases=2 Linecode=1P_OH_AL_2/0_Rucina_2

New Line.l(r:p30udm20339-p30udt4323lv) Units=km Length=0.0184027 bus1=p30udt4323lv.1.2 bus2=p30udm20339.1.2 switch=n enabled=y phases=2 Linecode=1P_OH_AL_2/0_Rucina_2

New Line.l(r:p30udt4327lv-p30ulv14173) Units=km Length=0.0159063 bus1=p30udt4327lv.1.2 bus2=p30ulv14173.1.2 switch=n enabled=y phases=2 Linecode=1P_OH_AL_2/0_Rucina_2

New Line.l(r:p30udt4327lv-p30ulv29731) Units=km Length=0.045723 bus1=p30udt4327lv.1.2 bus2=p30ulv29731.1.2 switch=n enabled=y phases=2 Linecode=1P_OH_AL_4/0_Zuzara_2

New Line.l(r:p30udm20353-p30ulv14171) Units=km Length=0.0163359 bus1=p30udm20353.1.2 bus2=p30ulv14171.1.2 switch=n enabled=y phases=2 Linecode=1P_OH_AL_2/0_Rucina_2

New Line.l(r:p30udm20353-p30udt4327lv) Units=km Length=0.0190178 bus1=p30udt4327lv.1.2 bus2=p30udm20353.1.2 switch=n enabled=y phases=2 Linecode=1P_OH_AL_2/0_Rucina_2

New Line.l(r:p30udm20356-p30ulv14175) Units=km Length=0.0125125 bus1=p30udm20356.1.2 bus2=p30ulv14175.1.2 switch=n enabled=y phases=2 Linecode=1P_OH_AL_2/0_Rucina_2

New Line.l(r:p30udm20357-p30ulv14176) Units=km Length=0.0120122 bus1=p30udm20357.1.2 bus2=p30ulv14176.1.2 switch=n enabled=y phases=2 Linecode=1P_OH_AL_2/0_Rucina_2

New Line.l(r:p30udm20358-p30ulv29751) Units=km Length=0.011104 bus1=p30udm20358.1.2 bus2=p30ulv29751.1.2 switch=n enabled=y phases=2 Linecode=1P_OH_AL_2/0_Rucina_2

New Line.l(r:p30udm20357-p30udm20358) Units=km Length=0.0180538 bus1=p30udm20357.1.2 bus2=p30udm20358.1.2 switch=n enabled=y phases=2 Linecode=1P_OH_AL_2/0_Rucina_2

New Line.l(r:p30udm20356-p30udm20357) Units=km Length=0.0180538 bus1=p30udm20356.1.2 bus2=p30udm20357.1.2 switch=n enabled=y phases=2 Linecode=1P_OH_AL_2/0_Rucina_2

New Line.l(r:p30udm20356-p30udt4328lv) Units=km Length=0.0312525 bus1=p30udt4328lv.1.2 bus2=p30udm20356.1.2 switch=n enabled=y phases=2 Linecode=1P_OH_AL_4/0_Zuzara_2_1

New Line.l(r:p30udm20359-p30ulv29782) Units=km Length=0.0269711 bus1=p30udm20359.1.2 bus2=p30ulv29782.1.2 switch=n enabled=y phases=2 Linecode=1P_OH_AL_2/0_Rucina_2

New Line.l(r:p30udm20359-p30udt4328lv) Units=km Length=0.019012600000000004 bus1=p30udt4328lv.1.2 bus2=p30udm20359.1.2 switch=n enabled=y phases=2 Linecode=1P_OH_AL_2/0_Rucina_2

New Line.l(r:p30udm20372-p30ulv29691) Units=km Length=0.012408500000000001 bus1=p30udm20372.1.2 bus2=p30ulv29691.1.2 switch=n enabled=y phases=2 Linecode=1P_OH_AL_2/0_Rucina_2

New Line.l(r:p30udm20372-p30ulv30794) Units=km Length=0.014316200000000001 bus1=p30udm20372.1.2 bus2=p30ulv30794.1.2 switch=n enabled=y phases=2 Linecode=1P_OH_AL_2/0_Rucina_2

New Line.l(r:p30udm20372-p30udt4333lv) Units=km Length=0.0196373 bus1=p30udt4333lv.1.2 bus2=p30udm20372.1.2 switch=n enabled=y phases=2 Linecode=1P_OH_AL_2/0_Rucina_2_1

New Line.l(r:p30udm20373-p30ulv30777) Units=km Length=0.015769 bus1=p30udm20373.1.2 bus2=p30ulv30777.1.2 switch=n enabled=y phases=2 Linecode=1P_OH_AL_2/0_Rucina_2

New Line.l(r:p30udm20371-p30ulv14186) Units=km Length=0.0153279 bus1=p30udm20371.1.2 bus2=p30ulv14186.1.2 switch=n enabled=y phases=2 Linecode=1P_OH_AL_2/0_Rucina_2

New Line.l(r:p30udm20371-p30udm20373) Units=km Length=0.0196373 bus1=p30udm20373.1.2 bus2=p30udm20371.1.2 switch=n enabled=y phases=2 Linecode=1P_OH_AL_2/0_Rucina_2

New Line.l(r:p30udm20373-p30udt4333lv) Units=km Length=0.019632100000000003 bus1=p30udt4333lv.1.2 bus2=p30udm20373.1.2 switch=n enabled=y phases=2 Linecode=1P_OH_AL_2/0_Rucina_2

New Line.l(r:p30udt4334lv-p30ulv14187) Units=km Length=0.0102351 bus1=p30udt4334lv.1.2 bus2=p30ulv14187.1.2 switch=n enabled=y phases=2 Linecode=1P_OH_AL_2/0_Rucina_2

New Line.l(r:p30udt4334lv-p30ulv29855) Units=km Length=0.0112367 bus1=p30udt4334lv.1.2 bus2=p30ulv29855.1.2 switch=n enabled=y phases=2 Linecode=1P_OH_AL_2/0_Rucina_2

New Line.l(r:p30udt4334lv-p30ulv29897) Units=km Length=0.0319272 bus1=p30udt4334lv.1.2 bus2=p30ulv29897.1.2 switch=n enabled=y phases=2 Linecode=1P_OH_AL_4/0_Zuzara_2

New Line.l(r:p30udt4334lv-p30ulv36657) Units=km Length=0.0408226 bus1=p30udt4334lv.1.2 bus2=p30ulv36657.1.2 switch=n enabled=y phases=2 Linecode=1P_OH_AL_4/0_Zuzara_2

New Line.l(r:p30udm20376-p30ulv14188) Units=km Length=0.0111881 bus1=p30udm20376.1.2 bus2=p30ulv14188.1.2 switch=n enabled=y phases=2 Linecode=1P_OH_AL_2/0_Rucina_2

New Line.l(r:p30udm20376-p30udt4334lv) Units=km Length=0.0151316 bus1=p30udt4334lv.1.2 bus2=p30udm20376.1.2 switch=n enabled=y phases=2 Linecode=1P_OH_AL_2/0_Rucina_2

New Line.l(r:p30udt4335lv-p30ulv29859) Units=km Length=0.0168455 bus1=p30udt4335lv.1.2 bus2=p30ulv29859.1.2 switch=n enabled=y phases=2 Linecode=1P_OH_AL_2/0_Rucina_2

New Line.l(r:p30udt4335lv-p30ulv29889) Units=km Length=0.0179945 bus1=p30udt4335lv.1.2 bus2=p30ulv29889.1.2 switch=n enabled=y phases=2 Linecode=1P_OH_AL_2/0_Rucina_2

New Line.l(r:p30udm20380-p30ulv14189) Units=km Length=0.016291 bus1=p30udm20380.1.2 bus2=p30ulv14189.1.2 switch=n enabled=y phases=2 Linecode=1P_OH_AL_2/0_Rucina_2

New Line.l(r:p30udm20380-p30udt4335lv) Units=km Length=0.0159838 bus1=p30udt4335lv.1.2 bus2=p30udm20380.1.2 switch=n enabled=y phases=2 Linecode=1P_OH_AL_2/0_Rucina_2

New Line.l(r:p30udm20382-p30ulv29869) Units=km Length=0.0192764 bus1=p30udm20382.1.2 bus2=p30ulv29869.1.2 switch=n enabled=y phases=2 Linecode=1P_OH_AL_2/0_Rucina_2

New Line.l(r:p30udm20382-p30ulv29898) Units=km Length=0.0182791 bus1=p30udm20382.1.2 bus2=p30ulv29898.1.2 switch=n enabled=y phases=2 Linecode=1P_OH_AL_2/0_Rucina_2

New Line.l(r:p30udm20382-p30udt4335lv) Units=km Length=0.0159838 bus1=p30udt4335lv.1.2 bus2=p30udm20382.1.2 switch=n enabled=y phases=2 Linecode=1P_OH_AL_2/0_Rucina_2

New Line.l(r:p30udt4336lv-p30ulv14190) Units=km Length=0.008363 bus1=p30udt4336lv.1.2 bus2=p30ulv14190.1.2 switch=n enabled=y phases=2 Linecode=1P_OH_AL_2/0_Rucina_2

New Line.l(r:p30udm20386-p30ulv14191) Units=km Length=0.00788064 bus1=p30udm20386.1.2 bus2=p30ulv14191.1.2 switch=n enabled=y phases=2 Linecode=1P_UG_AL_1/0_Brenau_2

New Line.l(r:p30udm20386-p30ulv14192) Units=km Length=0.0174881 bus1=p30udm20386.1.2 bus2=p30ulv14192.1.2 switch=n enabled=y phases=2 Linecode=1P_UG_AL_4/0_Sweetbriar_2

New Line.l(r:p30udm20386-p30udt4337lv) Units=km Length=0.0333871 bus1=p30udt4337lv.1.2 bus2=p30udm20386.1.2 switch=n enabled=y phases=2 Linecode=1P_OH_AL_4/0_Zuzara_2_1

New Line.l(r:p30udm20388-p30ulv36713) Units=km Length=0.0101971 bus1=p30udm20388.1.2 bus2=p30ulv36713.1.2 switch=n enabled=y phases=2 Linecode=1P_OH_AL_2/0_Rucina_2

New Line.l(r:p30udm20388-p30udt4337lv) Units=km Length=0.0513052 bus1=p30udt4337lv.1.2 bus2=p30udm20388.1.2 switch=n enabled=y phases=2 Linecode=1P_OH_AL_4/0_Zuzara_2

New Line.l(r:p30udt4338lv-p30ulv14200) Units=km Length=0.040765 bus1=p30udt4338lv.1.2 bus2=p30ulv14200.1.2 switch=n enabled=y phases=2 Linecode=1P_OH_AL_4/0_Zuzara_2

New Line.l(r:p30udt4338lv-p30ulv29843) Units=km Length=0.0159949 bus1=p30udt4338lv.1.2 bus2=p30ulv29843.1.2 switch=n enabled=y phases=2 Linecode=1P_OH_AL_2/0_Rucina_2

New Line.l(r:p30udm20391-p30ulv29833) Units=km Length=0.017117 bus1=p30udm20391.1.2 bus2=p30ulv29833.1.2 switch=n enabled=y phases=2 Linecode=1P_OH_AL_2/0_Rucina_2

New Line.l(r:p30udm20391-p30udt4338lv) Units=km Length=0.0145327 bus1=p30udt4338lv.1.2 bus2=p30udm20391.1.2 switch=n enabled=y phases=2 Linecode=1P_OH_AL_2/0_Rucina_2

New Line.l(r:p30udm20393-p30ulv29849) Units=km Length=0.017516000000000004 bus1=p30udm20393.1.2 bus2=p30ulv29849.1.2 switch=n enabled=y phases=2 Linecode=1P_OH_AL_2/0_Rucina_2

New Line.l(r:p30udm20389-p30ulv14194) Units=km Length=0.0180874 bus1=p30udm20389.1.2 bus2=p30ulv14194.1.2 switch=n enabled=y phases=2 Linecode=1P_OH_AL_2/0_Rucina_2

New Line.l(r:p30udm20389-p30udm20393) Units=km Length=0.015121 bus1=p30udm20393.1.2 bus2=p30udm20389.1.2 switch=n enabled=y phases=2 Linecode=1P_OH_AL_2/0_Rucina_2

New Line.l(r:p30udm20393-p30udt4338lv) Units=km Length=0.0145242 bus1=p30udt4338lv.1.2 bus2=p30udm20393.1.2 switch=n enabled=y phases=2 Linecode=1P_OH_AL_2/0_Rucina_2

New Line.l(r:p30udt4340lv-p30ulv14196) Units=km Length=0.016190000000000003 bus1=p30udt4340lv.1.2 bus2=p30ulv14196.1.2 switch=n enabled=y phases=2 Linecode=1P_OH_AL_2/0_Rucina_2

New Line.l(r:p30udt4340lv-p30ulv36686) Units=km Length=0.0147163 bus1=p30udt4340lv.1.2 bus2=p30ulv36686.1.2 switch=n enabled=y phases=2 Linecode=1P_OH_AL_2/0_Rucina_2

New Line.l(r:p30udt4340lv-p30ulv36693) Units=km Length=0.0452981 bus1=p30udt4340lv.1.2 bus2=p30ulv36693.1.2 switch=n enabled=y phases=2 Linecode=1P_OH_AL_4/0_Zuzara_2

New Line.l(r:p30udt4341lv-p30ulv14197) Units=km Length=0.011491600000000001 bus1=p30udt4341lv.1.2 bus2=p30ulv14197.1.2 switch=n enabled=y phases=2 Linecode=1P_OH_AL_2/0_Rucina_2

New Line.l(r:p30udm20399-p30ulv29725) Units=km Length=0.0219676 bus1=p30udm20399.1.2 bus2=p30ulv29725.1.2 switch=n enabled=y phases=2 Linecode=1P_OH_AL_2/0_Rucina_2

New Line.l(r:p30udm20399-p30udt4341lv) Units=km Length=0.06124670000000001 bus1=p30udt4341lv.1.2 bus2=p30udm20399.1.2 switch=n enabled=y phases=2 Linecode=1P_OH_AL_4/0_Zuzara_2

New Line.l(r:p30udm20400-p30ulv29741) Units=km Length=0.014698800000000001 bus1=p30udm20400.1.2 bus2=p30ulv29741.1.2 switch=n enabled=y phases=2 Linecode=1P_OH_AL_2/0_Rucina_2

New Line.l(r:p30udm20400-p30ulv29783) Units=km Length=0.0119171 bus1=p30udm20400.1.2 bus2=p30ulv29783.1.2 switch=n enabled=y phases=2 Linecode=1P_OH_AL_2/0_Rucina_2

New Line.l(r:p30udm20400-p30udt4341lv) Units=km Length=0.0180486 bus1=p30udt4341lv.1.2 bus2=p30udm20400.1.2 switch=n enabled=y phases=2 Linecode=1P_OH_AL_2/0_Rucina_2

New Line.l(r:p30udt4342lv-p30ulv14207) Units=km Length=0.043804 bus1=p30udt4342lv.1.2 bus2=p30ulv14207.1.2 switch=n enabled=y phases=2 Linecode=1P_OH_AL_4/0_Zuzara_2

New Line.l(r:p30udt4342lv-p30ulv14208) Units=km Length=0.0493171 bus1=p30udt4342lv.1.2 bus2=p30ulv14208.1.2 switch=n enabled=y phases=2 Linecode=1P_OH_AL_4/0_Zuzara_2

New Line.l(r:p30udm20403-p30ulv14199) Units=km Length=0.0201105 bus1=p30udm20403.1.2 bus2=p30ulv14199.1.2 switch=n enabled=y phases=2 Linecode=1P_OH_AL_2/0_Rucina_2

New Line.l(r:p30udm20403-p30ulv29775) Units=km Length=0.0425317 bus1=p30udm20403.1.2 bus2=p30ulv29775.1.2 switch=n enabled=y phases=2 Linecode=1P_OH_AL_4/0_Zuzara_2

New Line.l(r:p30udm20403-p30ulv29787) Units=km Length=0.019199200000000003 bus1=p30udm20403.1.2 bus2=p30ulv29787.1.2 switch=n enabled=y phases=2 Linecode=1P_OH_AL_2/0_Rucina_2

New Line.l(r:p30udm20402-p30ulv14198) Units=km Length=0.0205352 bus1=p30udm20402.1.2 bus2=p30ulv14198.1.2 switch=n enabled=y phases=2 Linecode=1P_OH_AL_2/0_Rucina_2
