New Load.load_p30ulv7053 conn=wye bus1=p30ulv7053.1.2.3 kV=0.48 Vminpu=0.8 Vmaxpu=1.2 model=1 kW=46.809826734736525 kvar=2.741771646639567 Phases=3 !yearly=com_kw_35600_pu

New Load.load_p30ulv7054 conn=wye bus1=p30ulv7054.1.2.3 kV=0.48 Vminpu=0.8 Vmaxpu=1.2 model=1 kW=27.418395924030982 kvar=6.4041987508596705 Phases=3 !yearly=com_kw_17236_pu

New Load.load_p30ulv7055_1 conn=wye bus1=p30ulv7055.1 kV=0.12 Vminpu=0.8 Vmaxpu=1.2 model=1 kW=8.62405367925426 kvar=2.9935415807198082 Phases=1 !yearly=res_kw_7392_pu

New Load.load_p30ulv7055_2 conn=wye bus1=p30ulv7055.2 kV=0.12 Vminpu=0.8 Vmaxpu=1.2 model=1 kW=8.62405367925426 kvar=2.9935415807198082 Phases=1 !yearly=res_kw_7392_pu

New Load.load_p30ulv7056 conn=wye bus1=p30ulv7056.1.2.3 kV=0.48 Vminpu=0.8 Vmaxpu=1.2 model=1 kW=175.3822051483021 kvar=72.16401938291173 Phases=3 !yearly=res_kw_3910_pu

New Load.load_p30ulv7057_1 conn=wye bus1=p30ulv7057.1 kV=0.12 Vminpu=0.8 Vmaxpu=1.2 model=1 kW=1.5088096974569087 kvar=0.1985914945099675 Phases=1 !yearly=res_kw_5109_pu

New Load.load_p30ulv7057_2 conn=wye bus1=p30ulv7057.2 kV=0.12 Vminpu=0.8 Vmaxpu=1.2 model=1 kW=1.5088096974569087 kvar=0.1985914945099675 Phases=1 !yearly=res_kw_5109_pu

New Load.load_p30ulv7061 conn=wye bus1=p30ulv7061.1.2.3 kV=0.48 Vminpu=0.8 Vmaxpu=1.2 model=1 kW=47.71617360365517 kvar=12.617785654091026 Phases=3 !yearly=com_kw_34120_pu

New Load.load_p30ulv7064 conn=wye bus1=p30ulv7064.1.2.3 kV=0.48 Vminpu=0.8 Vmaxpu=1.2 model=1 kW=72.8434802224912 kvar=12.15406035671413 Phases=3 !yearly=res_kw_8163_pu

New Load.load_p30ulv7065_1 conn=wye bus1=p30ulv7065.1 kV=0.12 Vminpu=0.8 Vmaxpu=1.2 model=1 kW=2.606959916668558 kvar=0.5550307077474157 Phases=1 !yearly=com_kw_33605_pu

New Load.load_p30ulv7065_2 conn=wye bus1=p30ulv7065.2 kV=0.12 Vminpu=0.8 Vmaxpu=1.2 model=1 kW=2.606959916668558 kvar=0.5550307077474157 Phases=1 !yearly=com_kw_33605_pu

New Load.load_p30ulv7066_1 conn=wye bus1=p30ulv7066.1 kV=0.12 Vminpu=0.8 Vmaxpu=1.2 model=1 kW=3.516258392707745 kvar=0.82351986644914 Phases=1 !yearly=res_kw_8052_pu

New Load.load_p30ulv7066_2 conn=wye bus1=p30ulv7066.2 kV=0.12 Vminpu=0.8 Vmaxpu=1.2 model=1 kW=3.516258392707745 kvar=0.82351986644914 Phases=1 !yearly=res_kw_8052_pu

New Load.load_p30ulv7105_1 conn=wye bus1=p30ulv7105.1 kV=0.12 Vminpu=0.8 Vmaxpu=1.2 model=1 kW=2.2874196130666418 kvar=0.9219654181970236 Phases=1 !yearly=res_kw_15185_pu

New Load.load_p30ulv7105_2 conn=wye bus1=p30ulv7105.2 kV=0.12 Vminpu=0.8 Vmaxpu=1.2 model=1 kW=2.2874196130666418 kvar=0.9219654181970236 Phases=1 !yearly=res_kw_15185_pu

New Load.load_p30ulv7106_1 conn=wye bus1=p30ulv7106.1 kV=0.12 Vminpu=0.8 Vmaxpu=1.2 model=1 kW=5.922263051512463 kvar=1.2402658775286277 Phases=1 !yearly=res_kw_6957_pu

New Load.load_p30ulv7106_2 conn=wye bus1=p30ulv7106.2 kV=0.12 Vminpu=0.8 Vmaxpu=1.2 model=1 kW=5.922263051512463 kvar=1.2402658775286277 Phases=1 !yearly=res_kw_6957_pu

New Load.load_p30ulv7107_1 conn=wye bus1=p30ulv7106.1 kV=0.12 Vminpu=0.8 Vmaxpu=1.2 model=1 kW=6.052620586065284 kvar=0.6154724266148378 Phases=1 !yearly=res_kw_7000_pu

New Load.load_p30ulv7107_2 conn=wye bus1=p30ulv7106.2 kV=0.12 Vminpu=0.8 Vmaxpu=1.2 model=1 kW=6.052620586065284 kvar=0.6154724266148378 Phases=1 !yearly=res_kw_7000_pu

New Load.load_p30ulv7108_1 conn=wye bus1=p30ulv7108.1 kV=0.12 Vminpu=0.8 Vmaxpu=1.2 model=1 kW=3.2928799042481236 kvar=2.2449914440930825 Phases=1 !yearly=res_kw_14965_pu

New Load.load_p30ulv7108_2 conn=wye bus1=p30ulv7108.2 kV=0.12 Vminpu=0.8 Vmaxpu=1.2 model=1 kW=3.2928799042481236 kvar=2.2449914440930825 Phases=1 !yearly=res_kw_14965_pu

New Load.load_p30ulv7109_1 conn=wye bus1=p30ulv7109.1 kV=0.12 Vminpu=0.8 Vmaxpu=1.2 model=1 kW=2.514014660495149 kvar=0.15947505825586705 Phases=1 !yearly=res_kw_15164_pu

New Load.load_p30ulv7109_2 conn=wye bus1=p30ulv7109.2 kV=0.12 Vminpu=0.8 Vmaxpu=1.2 model=1 kW=2.514014660495149 kvar=0.15947505825586705 Phases=1 !yearly=res_kw_15164_pu

New Load.load_p30ulv7110_1 conn=wye bus1=p30ulv7110.1 kV=0.12 Vminpu=0.8 Vmaxpu=1.2 model=1 kW=8.838538586601526 kvar=1.4567046008719367 Phases=1 !yearly=res_kw_9624_pu

New Load.load_p30ulv7110_2 conn=wye bus1=p30ulv7110.2 kV=0.12 Vminpu=0.8 Vmaxpu=1.2 model=1 kW=8.838538586601526 kvar=1.4567046008719367 Phases=1 !yearly=res_kw_9624_pu

New Load.load_p30ulv7111_1 conn=wye bus1=p30ulv7110.1 kV=0.12 Vminpu=0.8 Vmaxpu=1.2 model=1 kW=2.0300314981978542 kvar=0.9225136918449811 Phases=1 !yearly=res_kw_5872_pu

New Load.load_p30ulv7111_2 conn=wye bus1=p30ulv7110.2 kV=0.12 Vminpu=0.8 Vmaxpu=1.2 model=1 kW=2.0300314981978542 kvar=0.9225136918449811 Phases=1 !yearly=res_kw_5872_pu

New Load.load_p30ulv7112_1 conn=wye bus1=p30ulv7114.1 kV=0.12 Vminpu=0.8 Vmaxpu=1.2 model=1 kW=4.88794053821934 kvar=0.23527783199384397 Phases=1 !yearly=res_kw_13811_pu

New Load.load_p30ulv7112_2 conn=wye bus1=p30ulv7114.2 kV=0.12 Vminpu=0.8 Vmaxpu=1.2 model=1 kW=4.88794053821934 kvar=0.23527783199384397 Phases=1 !yearly=res_kw_13811_pu

New Load.load_p30ulv7113_1 conn=wye bus1=p30ulv7114.1 kV=0.12 Vminpu=0.8 Vmaxpu=1.2 model=1 kW=6.122083974307247 kvar=0.832996158964583 Phases=1 !yearly=res_kw_14014_pu

New Load.load_p30ulv7113_2 conn=wye bus1=p30ulv7114.2 kV=0.12 Vminpu=0.8 Vmaxpu=1.2 model=1 kW=6.122083974307247 kvar=0.832996158964583 Phases=1 !yearly=res_kw_14014_pu

New Load.load_p30ulv7114_1 conn=wye bus1=p30ulv7114.1 kV=0.12 Vminpu=0.8 Vmaxpu=1.2 model=1 kW=1.6756304436316105 kvar=0.651752290570944 Phases=1 !yearly=res_kw_14757_pu

New Load.load_p30ulv7114_2 conn=wye bus1=p30ulv7114.2 kV=0.12 Vminpu=0.8 Vmaxpu=1.2 model=1 kW=1.6756304436316105 kvar=0.651752290570944 Phases=1 !yearly=res_kw_14757_pu

New Load.load_p30ulv7115_1 conn=wye bus1=p30ulv7115.1 kV=0.12 Vminpu=0.8 Vmaxpu=1.2 model=1 kW=3.046503930015547 kvar=1.3063805977843779 Phases=1 !yearly=res_kw_7171_pu

New Load.load_p30ulv7115_2 conn=wye bus1=p30ulv7115.2 kV=0.12 Vminpu=0.8 Vmaxpu=1.2 model=1 kW=3.046503930015547 kvar=1.3063805977843779 Phases=1 !yearly=res_kw_7171_pu

New Load.load_p30ulv7116_1 conn=wye bus1=p30ulv7116.1 kV=0.12 Vminpu=0.8 Vmaxpu=1.2 model=1 kW=2.705813979318459 kvar=0.15815416725260664 Phases=1 !yearly=res_kw_9267_pu

New Load.load_p30ulv7116_2 conn=wye bus1=p30ulv7116.2 kV=0.12 Vminpu=0.8 Vmaxpu=1.2 model=1 kW=2.705813979318459 kvar=0.15815416725260664 Phases=1 !yearly=res_kw_9267_pu

New Load.load_p30ulv7117_1 conn=wye bus1=p30ulv7116.1 kV=0.12 Vminpu=0.8 Vmaxpu=1.2 model=1 kW=2.568071601997735 kvar=0.9996314727632699 Phases=1 !yearly=res_kw_12178_pu

New Load.load_p30ulv7117_2 conn=wye bus1=p30ulv7116.2 kV=0.12 Vminpu=0.8 Vmaxpu=1.2 model=1 kW=2.568071601997735 kvar=0.9996314727632699 Phases=1 !yearly=res_kw_12178_pu

New Load.load_p30ulv7118_1 conn=wye bus1=p30ulv7120.1 kV=0.12 Vminpu=0.8 Vmaxpu=1.2 model=1 kW=2.906110900807904 kvar=0.7339262719933625 Phases=1 !yearly=res_kw_1963_pu

New Load.load_p30ulv7118_2 conn=wye bus1=p30ulv7120.2 kV=0.12 Vminpu=0.8 Vmaxpu=1.2 model=1 kW=2.906110900807904 kvar=0.7339262719933625 Phases=1 !yearly=res_kw_1963_pu

New Load.load_p30ulv7119_1 conn=wye bus1=p30ulv7120.1 kV=0.12 Vminpu=0.8 Vmaxpu=1.2 model=1 kW=1.5539156587657554 kvar=0.6092612784831468 Phases=1 !yearly=res_kw_2844_pu

New Load.load_p30ulv7119_2 conn=wye bus1=p30ulv7120.2 kV=0.12 Vminpu=0.8 Vmaxpu=1.2 model=1 kW=1.5539156587657554 kvar=0.6092612784831468 Phases=1 !yearly=res_kw_2844_pu

New Load.load_p30ulv7120_1 conn=wye bus1=p30ulv7120.1 kV=0.12 Vminpu=0.8 Vmaxpu=1.2 model=1 kW=5.810132764673673 kvar=0.37076490271254653 Phases=1 !yearly=res_kw_10343_pu

New Load.load_p30ulv7120_2 conn=wye bus1=p30ulv7120.2 kV=0.12 Vminpu=0.8 Vmaxpu=1.2 model=1 kW=5.810132764673673 kvar=0.37076490271254653 Phases=1 !yearly=res_kw_10343_pu

New Load.load_p30ulv7121_1 conn=wye bus1=p30ulv7121.1 kV=0.12 Vminpu=0.8 Vmaxpu=1.2 model=1 kW=5.678900054512627 kvar=0.2757046368675722 Phases=1 !yearly=res_kw_4488_pu

New Load.load_p30ulv7121_2 conn=wye bus1=p30ulv7121.2 kV=0.12 Vminpu=0.8 Vmaxpu=1.2 model=1 kW=5.678900054512627 kvar=0.2757046368675722 Phases=1 !yearly=res_kw_4488_pu

New Load.load_p30ulv7122_1 conn=wye bus1=p30ulv7122.1 kV=0.12 Vminpu=0.8 Vmaxpu=1.2 model=1 kW=13.604900595393252 kvar=3.2118460552064385 Phases=1 !yearly=res_kw_12885_pu

New Load.load_p30ulv7122_2 conn=wye bus1=p30ulv7122.2 kV=0.12 Vminpu=0.8 Vmaxpu=1.2 model=1 kW=13.604900595393252 kvar=3.2118460552064385 Phases=1 !yearly=res_kw_12885_pu

New Load.load_p30ulv7123_1 conn=wye bus1=p30ulv7125.1 kV=0.12 Vminpu=0.8 Vmaxpu=1.2 model=1 kW=1.7859412473782077 kvar=0.762455747973555 Phases=1 !yearly=res_kw_12049_pu

New Load.load_p30ulv7123_2 conn=wye bus1=p30ulv7125.2 kV=0.12 Vminpu=0.8 Vmaxpu=1.2 model=1 kW=1.7859412473782077 kvar=0.762455747973555 Phases=1 !yearly=res_kw_12049_pu

New Load.load_p30ulv7124_1 conn=wye bus1=p30ulv7125.1 kV=0.12 Vminpu=0.8 Vmaxpu=1.2 model=1 kW=0.8540103839542617 kvar=0.3619237585140689 Phases=1 !yearly=res_kw_4896_pu

New Load.load_p30ulv7124_2 conn=wye bus1=p30ulv7125.2 kV=0.12 Vminpu=0.8 Vmaxpu=1.2 model=1 kW=0.8540103839542617 kvar=0.3619237585140689 Phases=1 !yearly=res_kw_4896_pu

New Load.load_p30ulv7125_1 conn=wye bus1=p30ulv7125.1 kV=0.12 Vminpu=0.8 Vmaxpu=1.2 model=1 kW=8.327080357562105 kvar=0.8869273803925216 Phases=1 !yearly=res_kw_5344_pu

New Load.load_p30ulv7125_2 conn=wye bus1=p30ulv7125.2 kV=0.12 Vminpu=0.8 Vmaxpu=1.2 model=1 kW=8.327080357562105 kvar=0.8869273803925216 Phases=1 !yearly=res_kw_5344_pu

New Load.load_p30ulv7126_1 conn=wye bus1=p30ulv7128.1 kV=0.12 Vminpu=0.8 Vmaxpu=1.2 model=1 kW=8.327080357562105 kvar=0.8869273803925216 Phases=1 !yearly=res_kw_5344_pu

New Load.load_p30ulv7126_2 conn=wye bus1=p30ulv7128.2 kV=0.12 Vminpu=0.8 Vmaxpu=1.2 model=1 kW=8.327080357562105 kvar=0.8869273803925216 Phases=1 !yearly=res_kw_5344_pu

New Load.load_p30ulv7127_1 conn=wye bus1=p30ulv7128.1 kV=0.12 Vminpu=0.8 Vmaxpu=1.2 model=1 kW=1.1527077476968088 kvar=0.7634945726643361 Phases=1 !yearly=res_kw_8203_pu

New Load.load_p30ulv7127_2 conn=wye bus1=p30ulv7128.2 kV=0.12 Vminpu=0.8 Vmaxpu=1.2 model=1 kW=1.1527077476968088 kvar=0.7634945726643361 Phases=1 !yearly=res_kw_8203_pu

New Load.load_p30ulv7128_1 conn=wye bus1=p30ulv7128.1 kV=0.12 Vminpu=0.8 Vmaxpu=1.2 model=1 kW=2.316539553342243 kvar=0.9980015331306656 Phases=1 !yearly=res_kw_8480_pu

New Load.load_p30ulv7128_2 conn=wye bus1=p30ulv7128.2 kV=0.12 Vminpu=0.8 Vmaxpu=1.2 model=1 kW=2.316539553342243 kvar=0.9980015331306656 Phases=1 !yearly=res_kw_8480_pu

New Load.load_p30ulv7129_1 conn=wye bus1=p30ulv7129.1 kV=0.12 Vminpu=0.8 Vmaxpu=1.2 model=1 kW=10.864911761597225 kvar=0.18304960962976596 Phases=1 !yearly=res_kw_251_pu

New Load.load_p30ulv7129_2 conn=wye bus1=p30ulv7129.2 kV=0.12 Vminpu=0.8 Vmaxpu=1.2 model=1 kW=10.864911761597225 kvar=0.18304960962976596 Phases=1 !yearly=res_kw_251_pu

New Load.load_p30ulv7130_1 conn=wye bus1=p30ulv7130.1 kV=0.12 Vminpu=0.8 Vmaxpu=1.2 model=1 kW=3.951190528162533 kvar=1.5985728264300443 Phases=1 !yearly=res_kw_9781_pu

New Load.load_p30ulv7130_2 conn=wye bus1=p30ulv7130.2 kV=0.12 Vminpu=0.8 Vmaxpu=1.2 model=1 kW=3.951190528162533 kvar=1.5985728264300443 Phases=1 !yearly=res_kw_9781_pu

New Load.load_p30ulv7131_1 conn=wye bus1=p30ulv7131.1 kV=0.12 Vminpu=0.8 Vmaxpu=1.2 model=1 kW=11.105743476044236 kvar=2.1232871839916267 Phases=1 !yearly=res_kw_9316_pu

New Load.load_p30ulv7131_2 conn=wye bus1=p30ulv7131.2 kV=0.12 Vminpu=0.8 Vmaxpu=1.2 model=1 kW=11.105743476044236 kvar=2.1232871839916267 Phases=1 !yearly=res_kw_9316_pu

New Load.load_p30ulv7132_1 conn=wye bus1=p30ulv7131.1 kV=0.12 Vminpu=0.8 Vmaxpu=1.2 model=1 kW=2.579369927520555 kvar=0.6647005569371234 Phases=1 !yearly=res_kw_6035_pu

New Load.load_p30ulv7132_2 conn=wye bus1=p30ulv7131.2 kV=0.12 Vminpu=0.8 Vmaxpu=1.2 model=1 kW=2.579369927520555 kvar=0.6647005569371234 Phases=1 !yearly=res_kw_6035_pu

New Load.load_p30ulv7133_1 conn=wye bus1=p30ulv7133.1 kV=0.12 Vminpu=0.8 Vmaxpu=1.2 model=1 kW=2.480898040411712 kvar=0.8953875033140384 Phases=1 !yearly=res_kw_14672_pu

New Load.load_p30ulv7133_2 conn=wye bus1=p30ulv7133.2 kV=0.12 Vminpu=0.8 Vmaxpu=1.2 model=1 kW=2.480898040411712 kvar=0.8953875033140384 Phases=1 !yearly=res_kw_14672_pu

New Load.load_p30ulv7134_1 conn=wye bus1=p30ulv7133.1 kV=0.12 Vminpu=0.8 Vmaxpu=1.2 model=1 kW=5.875485744114147 kvar=1.294896241985991 Phases=1 !yearly=res_kw_6117_pu

New Load.load_p30ulv7134_2 conn=wye bus1=p30ulv7133.2 kV=0.12 Vminpu=0.8 Vmaxpu=1.2 model=1 kW=5.875485744114147 kvar=1.294896241985991 Phases=1 !yearly=res_kw_6117_pu

New Load.load_p30ulv7135_1 conn=wye bus1=p30ulv7135.1 kV=0.12 Vminpu=0.8 Vmaxpu=1.2 model=1 kW=3.7847716543397305 kvar=0.8567239737527961 Phases=1 !yearly=res_kw_6256_pu

New Load.load_p30ulv7135_2 conn=wye bus1=p30ulv7135.2 kV=0.12 Vminpu=0.8 Vmaxpu=1.2 model=1 kW=3.7847716543397305 kvar=0.8567239737527961 Phases=1 !yearly=res_kw_6256_pu

New Load.load_p30ulv7136_1 conn=wye bus1=p30ulv7135.1 kV=0.12 Vminpu=0.8 Vmaxpu=1.2 model=1 kW=2.514014660495149 kvar=0.15947505825586705 Phases=1 !yearly=res_kw_15164_pu

New Load.load_p30ulv7136_2 conn=wye bus1=p30ulv7135.2 kV=0.12 Vminpu=0.8 Vmaxpu=1.2 model=1 kW=2.514014660495149 kvar=0.15947505825586705 Phases=1 !yearly=res_kw_15164_pu

New Load.load_p30ulv7137_1 conn=wye bus1=p30ulv7137.1 kV=0.12 Vminpu=0.8 Vmaxpu=1.2 model=1 kW=8.124050190743032 kvar=0.0820339050266582 Phases=1 !yearly=res_kw_3316_pu

New Load.load_p30ulv7137_2 conn=wye bus1=p30ulv7137.2 kV=0.12 Vminpu=0.8 Vmaxpu=1.2 model=1 kW=8.124050190743032 kvar=0.0820339050266582 Phases=1 !yearly=res_kw_3316_pu

New Load.load_p30ulv7138_1 conn=wye bus1=p30ulv7138.1 kV=0.12 Vminpu=0.8 Vmaxpu=1.2 model=1 kW=6.299986530968437 kvar=0.39151418351166195 Phases=1 !yearly=res_kw_7611_pu

New Load.load_p30ulv7138_2 conn=wye bus1=p30ulv7138.2 kV=0.12 Vminpu=0.8 Vmaxpu=1.2 model=1 kW=6.299986530968437 kvar=0.39151418351166195 Phases=1 !yearly=res_kw_7611_pu

New Load.load_p30ulv10053 conn=wye bus1=p30ulv10053.1.2.3 kV=0.48 Vminpu=0.8 Vmaxpu=1.2 model=1 kW=32.372611019524456 kvar=8.030839524737951 Phases=3 !yearly=res_kw_2189_pu

New Load.load_p30ulv10054 conn=wye bus1=p30ulv10054.1.2.3 kV=0.48 Vminpu=0.8 Vmaxpu=1.2 model=1 kW=112.48544010336461 kvar=34.28425445055516 Phases=3 !yearly=res_kw_1467_pu

New Load.load_p30ulv10055 conn=wye bus1=p30ulv10055.1.2.3 kV=0.48 Vminpu=0.8 Vmaxpu=1.2 model=1 kW=36.94196590081198 kvar=3.5807902161593104 Phases=3 !yearly=com_kw_29351_pu

New Load.load_p30ulv10318_1 conn=wye bus1=p30ulv10318.1 kV=0.12 Vminpu=0.8 Vmaxpu=1.2 model=1 kW=3.902887215219663 kvar=1.111231385342157 Phases=1 !yearly=com_kw_2430_pu

New Load.load_p30ulv10318_2 conn=wye bus1=p30ulv10318.2 kV=0.12 Vminpu=0.8 Vmaxpu=1.2 model=1 kW=3.902887215219663 kvar=1.111231385342157 Phases=1 !yearly=com_kw_2430_pu

New Load.load_p30ulv10319_1 conn=wye bus1=p30ulv10318.1 kV=0.12 Vminpu=0.8 Vmaxpu=1.2 model=1 kW=7.608568939316635 kvar=1.5488339278434438 Phases=1 !yearly=com_kw_35566_pu

New Load.load_p30ulv10319_2 conn=wye bus1=p30ulv10318.2 kV=0.12 Vminpu=0.8 Vmaxpu=1.2 model=1 kW=7.608568939316635 kvar=1.5488339278434438 Phases=1 !yearly=com_kw_35566_pu

New Load.load_p30ulv10320_1 conn=wye bus1=p30ulv10320.1 kV=0.12 Vminpu=0.8 Vmaxpu=1.2 model=1 kW=8.275825784518752 kvar=1.9523230460483654 Phases=1 !yearly=com_kw_29395_pu

New Load.load_p30ulv10320_2 conn=wye bus1=p30ulv10320.2 kV=0.12 Vminpu=0.8 Vmaxpu=1.2 model=1 kW=8.275825784518752 kvar=1.9523230460483654 Phases=1 !yearly=com_kw_29395_pu

New Load.load_p30ulv10321_1 conn=wye bus1=p30ulv10321.1 kV=0.12 Vminpu=0.8 Vmaxpu=1.2 model=1 kW=3.7955530160091877 kvar=0.9939393246787002 Phases=1 !yearly=com_kw_17799_pu

New Load.load_p30ulv10321_2 conn=wye bus1=p30ulv10321.2 kV=0.12 Vminpu=0.8 Vmaxpu=1.2 model=1 kW=3.7955530160091877 kvar=0.9939393246787002 Phases=1 !yearly=com_kw_17799_pu

New Load.load_p30ulv10322_1 conn=wye bus1=p30ulv10322.1 kV=0.12 Vminpu=0.8 Vmaxpu=1.2 model=1 kW=4.303683190658094 kvar=0.2594077076814056 Phases=1 !yearly=com_kw_17318_pu

New Load.load_p30ulv10322_2 conn=wye bus1=p30ulv10322.2 kV=0.12 Vminpu=0.8 Vmaxpu=1.2 model=1 kW=4.303683190658094 kvar=0.2594077076814056 Phases=1 !yearly=com_kw_17318_pu

New Load.load_p30umv9 conn=wye bus1=p30umv9.1.2.3 kV=12.47 Vminpu=0.8 Vmaxpu=1.2 model=1 kW=1191.6272708379015 kvar=330.44010508256326 Phases=3 !yearly=com_kw_1573_pu

New Load.load_p30ulv10325 conn=wye bus1=p30ulv10325.1.2.3 kV=0.48 Vminpu=0.8 Vmaxpu=1.2 model=1 kW=299.3185652080189 kvar=83.95644113884569 Phases=3 !yearly=com_kw_2308_pu

New Load.load_p30ulv10326 conn=wye bus1=p30ulv10326.1.2.3 kV=0.48 Vminpu=0.8 Vmaxpu=1.2 model=1 kW=68.85821201611185 kvar=7.187176807969478 Phases=3 !yearly=com_kw_33784_pu

New Load.load_p30ulv10327_1 conn=wye bus1=p30ulv10327.1 kV=0.12 Vminpu=0.8 Vmaxpu=1.2 model=1 kW=9.604758861233082 kvar=2.447923826856204 Phases=1 !yearly=com_kw_17199_pu

New Load.load_p30ulv10327_2 conn=wye bus1=p30ulv10327.2 kV=0.12 Vminpu=0.8 Vmaxpu=1.2 model=1 kW=9.604758861233082 kvar=2.447923826856204 Phases=1 !yearly=com_kw_17199_pu

New Load.load_p30ulv10328 conn=wye bus1=p30ulv10328.1.2.3 kV=0.48 Vminpu=0.8 Vmaxpu=1.2 model=1 kW=113.00325956479294 kvar=31.14709196448068 Phases=3 !yearly=com_kw_31434_pu

New Load.load_p30ulv10329 conn=wye bus1=p30ulv10329.1.2.3 kV=0.48 Vminpu=0.8 Vmaxpu=1.2 model=1 kW=37.60013805686809 kvar=8.796551843198008 Phases=3 !yearly=com_kw_21236_pu

New Load.load_p30ulv12272_1 conn=wye bus1=p30ulv12272.1 kV=0.12 Vminpu=0.8 Vmaxpu=1.2 model=1 kW=6.362214624400378 kvar=0.9077669916640043 Phases=1 !yearly=res_kw_9228_pu

New Load.load_p30ulv12272_2 conn=wye bus1=p30ulv12272.2 kV=0.12 Vminpu=0.8 Vmaxpu=1.2 model=1 kW=6.362214624400378 kvar=0.9077669916640043 Phases=1 !yearly=res_kw_9228_pu

New Load.load_p30ulv12647_1 conn=wye bus1=p30ulv12647.1 kV=0.12 Vminpu=0.8 Vmaxpu=1.2 model=1 kW=3.9614713621548963 kvar=1.170985110067395 Phases=1 !yearly=res_kw_10928_pu

New Load.load_p30ulv12647_2 conn=wye bus1=p30ulv12647.2 kV=0.12 Vminpu=0.8 Vmaxpu=1.2 model=1 kW=3.9614713621548963 kvar=1.170985110067395 Phases=1 !yearly=res_kw_10928_pu

New Load.load_p30ulv12648_1 conn=wye bus1=p30ulv12648.1 kV=0.12 Vminpu=0.8 Vmaxpu=1.2 model=1 kW=4.405220152936496 kvar=0.8295688868358275 Phases=1 !yearly=res_kw_4743_pu

New Load.load_p30ulv12648_2 conn=wye bus1=p30ulv12648.2 kV=0.12 Vminpu=0.8 Vmaxpu=1.2 model=1 kW=4.405220152936496 kvar=0.8295688868358275 Phases=1 !yearly=res_kw_4743_pu

New Load.load_p30ulv12649_1 conn=wye bus1=p30ulv12649.1 kV=0.12 Vminpu=0.8 Vmaxpu=1.2 model=1 kW=1.8668291909105112 kvar=0.7572719732007044 Phases=1 !yearly=res_kw_4310_pu

New Load.load_p30ulv12649_2 conn=wye bus1=p30ulv12649.2 kV=0.12 Vminpu=0.8 Vmaxpu=1.2 model=1 kW=1.8668291909105112 kvar=0.7572719732007044 Phases=1 !yearly=res_kw_4310_pu

New Load.load_p30ulv12650_1 conn=wye bus1=p30ulv12649.1 kV=0.12 Vminpu=0.8 Vmaxpu=1.2 model=1 kW=1.0137187800791063 kvar=0.5284248988065299 Phases=1 !yearly=res_kw_14175_pu

New Load.load_p30ulv12650_2 conn=wye bus1=p30ulv12649.2 kV=0.12 Vminpu=0.8 Vmaxpu=1.2 model=1 kW=1.0137187800791063 kvar=0.5284248988065299 Phases=1 !yearly=res_kw_14175_pu

New Load.load_p30ulv12669_1 conn=wye bus1=p30ulv12669.1 kV=0.12 Vminpu=0.8 Vmaxpu=1.2 model=1 kW=2.0307394237991176 kvar=1.0095205649117913 Phases=1 !yearly=res_kw_10513_pu

New Load.load_p30ulv12669_2 conn=wye bus1=p30ulv12669.2 kV=0.12 Vminpu=0.8 Vmaxpu=1.2 model=1 kW=2.0307394237991176 kvar=1.0095205649117913 Phases=1 !yearly=res_kw_10513_pu

New Load.load_p30ulv12670_1 conn=wye bus1=p30ulv12670.1 kV=0.12 Vminpu=0.8 Vmaxpu=1.2 model=1 kW=1.5424601784243566 kvar=0.31457775613808403 Phases=1 !yearly=res_kw_7086_pu

New Load.load_p30ulv12670_2 conn=wye bus1=p30ulv12670.2 kV=0.12 Vminpu=0.8 Vmaxpu=1.2 model=1 kW=1.5424601784243566 kvar=0.31457775613808403 Phases=1 !yearly=res_kw_7086_pu

New Load.load_p30ulv14162_1 conn=wye bus1=p30ulv14162.1 kV=0.12 Vminpu=0.8 Vmaxpu=1.2 model=1 kW=7.6278342248960085 kvar=1.075859349289854 Phases=1 !yearly=res_kw_9727_pu

New Load.load_p30ulv14162_2 conn=wye bus1=p30ulv14162.2 kV=0.12 Vminpu=0.8 Vmaxpu=1.2 model=1 kW=7.6278342248960085 kvar=1.075859349289854 Phases=1 !yearly=res_kw_9727_pu

New Load.load_p30ulv14163_1 conn=wye bus1=p30ulv14162.1 kV=0.12 Vminpu=0.8 Vmaxpu=1.2 model=1 kW=0.4564135483592416 kvar=0.229031727340273 Phases=1 !yearly=res_kw_2874_pu

New Load.load_p30ulv14163_2 conn=wye bus1=p30ulv14162.2 kV=0.12 Vminpu=0.8 Vmaxpu=1.2 model=1 kW=0.4564135483592416 kvar=0.229031727340273 Phases=1 !yearly=res_kw_2874_pu

New Load.load_p30ulv14164_1 conn=wye bus1=p30ulv14164.1 kV=0.12 Vminpu=0.8 Vmaxpu=1.2 model=1 kW=8.184407360942759 kvar=2.9118581896542066 Phases=1 !yearly=res_kw_4064_pu

New Load.load_p30ulv14164_2 conn=wye bus1=p30ulv14164.2 kV=0.12 Vminpu=0.8 Vmaxpu=1.2 model=1 kW=8.184407360942759 kvar=2.9118581896542066 Phases=1 !yearly=res_kw_4064_pu

New Load.load_p30ulv14165_1 conn=wye bus1=p30ulv14165.1 kV=0.12 Vminpu=0.8 Vmaxpu=1.2 model=1 kW=1.7228393963905424 kvar=0.8202092673396962 Phases=1 !yearly=res_kw_379_pu

New Load.load_p30ulv14165_2 conn=wye bus1=p30ulv14165.2 kV=0.12 Vminpu=0.8 Vmaxpu=1.2 model=1 kW=1.7228393963905424 kvar=0.8202092673396962 Phases=1 !yearly=res_kw_379_pu

New Load.load_p30ulv14166_1 conn=wye bus1=p30ulv14166.1 kV=0.12 Vminpu=0.8 Vmaxpu=1.2 model=1 kW=10.865719813725336 kvar=1.6543863727993946 Phases=1 !yearly=res_kw_3217_pu

New Load.load_p30ulv14166_2 conn=wye bus1=p30ulv14166.2 kV=0.12 Vminpu=0.8 Vmaxpu=1.2 model=1 kW=10.865719813725336 kvar=1.6543863727993946 Phases=1 !yearly=res_kw_3217_pu

New Load.load_p30ulv14167 conn=wye bus1=p30ulv14167.1.2.3 kV=0.48 Vminpu=0.8 Vmaxpu=1.2 model=1 kW=37.77876337160645 kvar=10.168665614234834 Phases=3 !yearly=com_kw_8409_pu

New Load.load_p30ulv14171_1 conn=wye bus1=p30ulv14171.1 kV=0.12 Vminpu=0.8 Vmaxpu=1.2 model=1 kW=7.345924752838713 kvar=1.384583268788059 Phases=1 !yearly=res_kw_4075_pu

New Load.load_p30ulv14171_2 conn=wye bus1=p30ulv14171.2 kV=0.12 Vminpu=0.8 Vmaxpu=1.2 model=1 kW=7.345924752838713 kvar=1.384583268788059 Phases=1 !yearly=res_kw_4075_pu

New Load.load_p30ulv14172_1 conn=wye bus1=p30ulv14171.1 kV=0.12 Vminpu=0.8 Vmaxpu=1.2 model=1 kW=2.684904254134122 kvar=0.42635901069761617 Phases=1 !yearly=res_kw_2114_pu

New Load.load_p30ulv14172_2 conn=wye bus1=p30ulv14171.2 kV=0.12 Vminpu=0.8 Vmaxpu=1.2 model=1 kW=2.684904254134122 kvar=0.42635901069761617 Phases=1 !yearly=res_kw_2114_pu

New Load.load_p30ulv14173_1 conn=wye bus1=p30ulv14173.1 kV=0.12 Vminpu=0.8 Vmaxpu=1.2 model=1 kW=2.316539553342243 kvar=0.9980015331306656 Phases=1 !yearly=res_kw_8480_pu

New Load.load_p30ulv14173_2 conn=wye bus1=p30ulv14173.2 kV=0.12 Vminpu=0.8 Vmaxpu=1.2 model=1 kW=2.316539553342243 kvar=0.9980015331306656 Phases=1 !yearly=res_kw_8480_pu

New Load.load_p30ulv14174_1 conn=wye bus1=p30ulv14173.1 kV=0.12 Vminpu=0.8 Vmaxpu=1.2 model=1 kW=1.3510125413548424 kvar=0.5621017434083633 Phases=1 !yearly=res_kw_6051_pu

New Load.load_p30ulv14174_2 conn=wye bus1=p30ulv14173.2 kV=0.12 Vminpu=0.8 Vmaxpu=1.2 model=1 kW=1.3510125413548424 kvar=0.5621017434083633 Phases=1 !yearly=res_kw_6051_pu

New Load.load_p30ulv14175_1 conn=wye bus1=p30ulv14175.1 kV=0.12 Vminpu=0.8 Vmaxpu=1.2 model=1 kW=4.715926081783519 kvar=1.307775007177393 Phases=1 !yearly=com_kw_41527_pu

New Load.load_p30ulv14175_2 conn=wye bus1=p30ulv14175.2 kV=0.12 Vminpu=0.8 Vmaxpu=1.2 model=1 kW=4.715926081783519 kvar=1.307775007177393 Phases=1 !yearly=com_kw_41527_pu

New Load.load_p30ulv14176_1 conn=wye bus1=p30ulv14176.1 kV=0.12 Vminpu=0.8 Vmaxpu=1.2 model=1 kW=5.790766933672033 kvar=1.1063710242253786 Phases=1 !yearly=res_kw_7061_pu

New Load.load_p30ulv14176_2 conn=wye bus1=p30ulv14176.2 kV=0.12 Vminpu=0.8 Vmaxpu=1.2 model=1 kW=5.790766933672033 kvar=1.1063710242253786 Phases=1 !yearly=res_kw_7061_pu

New Load.load_p30ulv14186_1 conn=wye bus1=p30ulv14186.1 kV=0.12 Vminpu=0.8 Vmaxpu=1.2 model=1 kW=1.4845546712501703 kvar=0.47455106810204356 Phases=1 !yearly=res_kw_13607_pu

New Load.load_p30ulv14186_2 conn=wye bus1=p30ulv14186.2 kV=0.12 Vminpu=0.8 Vmaxpu=1.2 model=1 kW=1.4845546712501703 kvar=0.47455106810204356 Phases=1 !yearly=res_kw_13607_pu

New Load.load_p30ulv14187_1 conn=wye bus1=p30ulv14187.1 kV=0.12 Vminpu=0.8 Vmaxpu=1.2 model=1 kW=11.781417717027779 kvar=0.8587937162639665 Phases=1 !yearly=res_kw_2699_pu

New Load.load_p30ulv14187_2 conn=wye bus1=p30ulv14187.2 kV=0.12 Vminpu=0.8 Vmaxpu=1.2 model=1 kW=11.781417717027779 kvar=0.8587937162639665 Phases=1 !yearly=res_kw_2699_pu

New Load.load_p30ulv14188_1 conn=wye bus1=p30ulv14188.1 kV=0.12 Vminpu=0.8 Vmaxpu=1.2 model=1 kW=22.23864321859939 kvar=4.358398698167626 Phases=1 !yearly=res_kw_10287_pu

New Load.load_p30ulv14188_2 conn=wye bus1=p30ulv14188.2 kV=0.12 Vminpu=0.8 Vmaxpu=1.2 model=1 kW=22.23864321859939 kvar=4.358398698167626 Phases=1 !yearly=res_kw_10287_pu

New Load.load_p30ulv14189_1 conn=wye bus1=p30ulv14189.1 kV=0.12 Vminpu=0.8 Vmaxpu=1.2 model=1 kW=5.762461808960138 kvar=1.1832641091261547 Phases=1 !yearly=res_kw_541_pu

New Load.load_p30ulv14189_2 conn=wye bus1=p30ulv14189.2 kV=0.12 Vminpu=0.8 Vmaxpu=1.2 model=1 kW=5.762461808960138 kvar=1.1832641091261547 Phases=1 !yearly=res_kw_541_pu

New Load.load_p30ulv14190_1 conn=wye bus1=p30ulv14190.1 kV=0.12 Vminpu=0.8 Vmaxpu=1.2 model=1 kW=8.596168472464354 kvar=2.043358236610859 Phases=1 !yearly=com_kw_16004_pu

New Load.load_p30ulv14190_2 conn=wye bus1=p30ulv14190.2 kV=0.12 Vminpu=0.8 Vmaxpu=1.2 model=1 kW=8.596168472464354 kvar=2.043358236610859 Phases=1 !yearly=com_kw_16004_pu

New Load.load_p30ulv14191_1 conn=wye bus1=p30ulv14191.1 kV=0.12 Vminpu=0.8 Vmaxpu=1.2 model=1 kW=3.902887215219663 kvar=1.111231385342157 Phases=1 !yearly=com_kw_2430_pu

New Load.load_p30ulv14191_2 conn=wye bus1=p30ulv14191.2 kV=0.12 Vminpu=0.8 Vmaxpu=1.2 model=1 kW=3.902887215219663 kvar=1.111231385342157 Phases=1 !yearly=com_kw_2430_pu

New Load.load_p30ulv14192_1 conn=wye bus1=p30ulv14192.1 kV=0.12 Vminpu=0.8 Vmaxpu=1.2 model=1 kW=8.626960709128026 kvar=1.9394473486627057 Phases=1 !yearly=com_kw_1784_pu

New Load.load_p30ulv14192_2 conn=wye bus1=p30ulv14192.2 kV=0.12 Vminpu=0.8 Vmaxpu=1.2 model=1 kW=8.626960709128026 kvar=1.9394473486627057 Phases=1 !yearly=com_kw_1784_pu

New Load.load_p30ulv14193_1 conn=wye bus1=p30ulv14193.1 kV=0.12 Vminpu=0.8 Vmaxpu=1.2 model=1 kW=11.437380365394235 kvar=0.7476222632536969 Phases=1 !yearly=res_kw_450_pu

New Load.load_p30ulv14193_2 conn=wye bus1=p30ulv14193.2 kV=0.12 Vminpu=0.8 Vmaxpu=1.2 model=1 kW=11.437380365394235 kvar=0.7476222632536969 Phases=1 !yearly=res_kw_450_pu

New Load.load_p30ulv14194_1 conn=wye bus1=p30ulv14194.1 kV=0.12 Vminpu=0.8 Vmaxpu=1.2 model=1 kW=13.623310208466098 kvar=2.181091602665111 Phases=1 !yearly=res_kw_12970_pu

New Load.load_p30ulv14194_2 conn=wye bus1=p30ulv14194.2 kV=0.12 Vminpu=0.8 Vmaxpu=1.2 model=1 kW=13.623310208466098 kvar=2.181091602665111 Phases=1 !yearly=res_kw_12970_pu

New Load.load_p30ulv14195 conn=wye bus1=p30ulv14195.1.2.3 kV=0.48 Vminpu=0.8 Vmaxpu=1.2 model=1 kW=33.99866042600665 kvar=9.462458851100337 Phases=3 !yearly=com_kw_19578_pu

New Load.load_p30ulv14196_1 conn=wye bus1=p30ulv14196.1 kV=0.12 Vminpu=0.8 Vmaxpu=1.2 model=1 kW=14.001231070040898 kvar=2.5579188240920185 Phases=1 !yearly=res_kw_7928_pu

New Load.load_p30ulv14196_2 conn=wye bus1=p30ulv14196.2 kV=0.12 Vminpu=0.8 Vmaxpu=1.2 model=1 kW=14.001231070040898 kvar=2.5579188240920185 Phases=1 !yearly=res_kw_7928_pu

New Load.load_p30ulv14197_1 conn=wye bus1=p30ulv14197.1 kV=0.12 Vminpu=0.8 Vmaxpu=1.2 model=1 kW=5.2005516092690005 kvar=1.29985457921054 Phases=1 !yearly=res_kw_11808_pu

New Load.load_p30ulv14197_2 conn=wye bus1=p30ulv14197.2 kV=0.12 Vminpu=0.8 Vmaxpu=1.2 model=1 kW=5.2005516092690005 kvar=1.29985457921054 Phases=1 !yearly=res_kw_11808_pu

New Load.load_p30ulv14198_1 conn=wye bus1=p30ulv14198.1 kV=0.12 Vminpu=0.8 Vmaxpu=1.2 model=1 kW=1.7628538083737542 kvar=0.7287957147649712 Phases=1 !yearly=res_kw_5139_pu

New Load.load_p30ulv14198_2 conn=wye bus1=p30ulv14198.2 kV=0.12 Vminpu=0.8 Vmaxpu=1.2 model=1 kW=1.7628538083737542 kvar=0.7287957147649712 Phases=1 !yearly=res_kw_5139_pu

New Load.load_p30ulv14199_1 conn=wye bus1=p30ulv14199.1 kV=0.12 Vminpu=0.8 Vmaxpu=1.2 model=1 kW=1.354712060637522 kvar=0.4837914100136788 Phases=1 !yearly=res_kw_6243_pu

New Load.load_p30ulv14199_2 conn=wye bus1=p30ulv14199.2 kV=0.12 Vminpu=0.8 Vmaxpu=1.2 model=1 kW=1.354712060637522 kvar=0.4837914100136788 Phases=1 !yearly=res_kw_6243_pu

New Load.load_p30ulv14200_1 conn=wye bus1=p30ulv14200.1 kV=0.12 Vminpu=0.8 Vmaxpu=1.2 model=1 kW=4.88794053821934 kvar=0.23527783199384397 Phases=1 !yearly=res_kw_13811_pu

New Load.load_p30ulv14200_2 conn=wye bus1=p30ulv14200.2 kV=0.12 Vminpu=0.8 Vmaxpu=1.2 model=1 kW=4.88794053821934 kvar=0.23527783199384397 Phases=1 !yearly=res_kw_13811_pu

New Load.load_p30ulv14201_1 conn=wye bus1=p30ulv14201.1 kV=0.12 Vminpu=0.8 Vmaxpu=1.2 model=1 kW=0.6733980323267108 kvar=0.22626974414284334 Phases=1 !yearly=res_kw_10750_pu

New Load.load_p30ulv14201_2 conn=wye bus1=p30ulv14201.2 kV=0.12 Vminpu=0.8 Vmaxpu=1.2 model=1 kW=0.6733980323267108 kvar=0.22626974414284334 Phases=1 !yearly=res_kw_10750_pu

New Load.load_p30ulv14202 conn=wye bus1=p30ulv14202.1.2.3 kV=0.48 Vminpu=0.8 Vmaxpu=1.2 model=1 kW=88.66306219148066 kvar=25.812151802890586 Phases=3 !yearly=com_kw_19696_pu

New Load.load_p30ulv14203_1 conn=wye bus1=p30ulv14203.1 kV=0.12 Vminpu=0.8 Vmaxpu=1.2 model=1 kW=2.882765489125589 kvar=0.7706550587664386 Phases=1 !yearly=res_kw_495_pu

New Load.load_p30ulv14203_2 conn=wye bus1=p30ulv14203.2 kV=0.12 Vminpu=0.8 Vmaxpu=1.2 model=1 kW=2.882765489125589 kvar=0.7706550587664386 Phases=1 !yearly=res_kw_495_pu

New Load.load_p30ulv14204_1 conn=wye bus1=p30ulv14204.1 kV=0.12 Vminpu=0.8 Vmaxpu=1.2 model=1 kW=1.8309189378455104 kvar=0.6069744647018672 Phases=1 !yearly=res_kw_10071_pu

New Load.load_p30ulv14204_2 conn=wye bus1=p30ulv14204.2 kV=0.12 Vminpu=0.8 Vmaxpu=1.2 model=1 kW=1.8309189378455104 kvar=0.6069744647018672 Phases=1 !yearly=res_kw_10071_pu
